LTspice 24.0.12 for Windows
Circuit: * C:\Users\JEggeling\OneDrive - Beko Technologies GmbH\Documents\LTspice\Boost_Converter.asc
Start Time: Fri Jan  3 16:13:50 2025
solver = Normal
Maximum thread count: 16
tnom = 27
temp = 27
method = modified trap
.OP point found by inspection.
Total elapsed time: 0.353 seconds.

