LTspice 24.0.12 for Windows
Circuit: * C:\Users\JEggeling\OneDrive - Beko Technologies GmbH\_Projekte\_EinfacherLEDBlitzer_GH\Simulationen\Boost_Converter.asc
Start Time: Mon Feb  3 14:29:28 2025
solver = Normal
Maximum thread count: 16
tnom = 27
temp = 27
method = modified trap
.OP point found by inspection.
Total elapsed time: 0.433 seconds.

