LTspice 24.0.12 for Windows
Circuit: * C:\Users\juerg\Documents\_EinfacherLEDBlitzer(GH)\diver_led_tools\Simulationen\LEDS_in_Reihe\Boost_Converter.asc
Start Time: Sun Feb  9 20:21:54 2025
solver = Normal
Maximum thread count: 16
tnom = 27
temp = 27
method = modified trap
.OP point found by inspection.
Total elapsed time: 0.974 seconds.

